108
System of Argon Gas
C 8.657906077040266 15.05092848255214 14.417240906909226
C 9.808276011676883 -0.02530413091936078 9.603739958404448
C 13.064697793576538 11.324063585980683 -1.2054046119598076
C 14.562604670358716 1.968675926018143 13.137884580091566
C 8.089122913139132 14.805885224175357 18.1384442250336
C 14.064756724484713 10.984109819789422 9.630876209076272
C -0.8120645835393205 5.651800492562533 4.613837775852307
C 7.130703178558839 8.260118017056012 18.406696597808935
C 13.628353788417826 0.2253609588074049 9.85101454209663
C 8.451513830053061 8.363852752408384 7.979958374430562
C 15.333811836100256 8.6859497913671 5.4294376900787995
C 6.296088765643106 5.379626981688159 2.8015826443298693
C 16.47592450866423 6.604652892357906 8.441484027855433
C 9.783595586342251 -0.36859616239663634 5.672531331959889
C 9.379428813498114 3.5735938105570857 14.70711571421019
C 6.8586562786216385 4.769851757656302 17.164790856992745
C 6.140580478168145 0.6048956836452981 9.934541674980043
C 7.603621976304391 11.494627786710224 2.1193138222984844
C 6.9269720737384155 12.012402520331829 9.335842422163454
C 10.646154912245501 10.871938370519878 4.4447586587361885
C 4.9617805723136525 7.595630286462628 6.74178778107937
C 9.852159377110127 6.93124838239496 16.18362135248953
C 14.34522957198914 17.796385948060948 6.17755661787317
C 3.7498877085211433 6.7588431472706025 18.2626313868021
C 1.8584081596174336 -0.1678904357312227 11.31889937898788
C 4.897527802617207 14.07975790660758 2.0601758697151493
C 4.190355346461614 20.68969097411643 12.308728883179505
C 19.209846442129276 13.896400989569653 6.930252179233756
C 6.9664322292581256 17.012653693516178 3.0367116325105696
C 16.86360746226306 8.976343266123889 11.275937593460716
C 10.206224980503377 12.278514868162203 7.681619271523733
C 4.921518027798309 5.171815655165084 9.513545685153028
C -0.7629504806649924 12.890443430239431 10.760625520261367
C 13.58003786648418 5.395971503827266 6.2553992484583745
C 4.79041354657015 8.848467652811257 3.371133890059496
C 11.698264398895786 14.9958570152052 16.583581853527
C 13.260251544404781 7.3750212422747135 -0.38531534472865825
C 11.512629509397856 12.845706253657196 13.613408170608718
C 7.771894590756847 15.422468817215563 7.923246935966136
C 2.0469378333927124 8.295432030756531 9.387745947923623
C 10.634816205413362 5.472971281727716 9.149303425156063
C 11.66226898449811 16.958731353591897 12.926570176940745
C 1.5013687461701832 2.2642992371180513 5.196749126103854
C 14.687987450915955 15.124731313565736 14.308920026023626
C 9.816049826229486 14.3266393712126 10.784285121292239
C 12.071981607094207 8.700121875847442 7.3774585101089425
C 5.174224808721187 14.132767935704566 5.727060841034667
C 9.895856065661041 5.259201366441017 5.562594572614081
C 5.078001572099976 3.8944093283769714 6.060783709371123
C 13.738611577813002 11.959420578589672 6.142757129991464
C 14.226279387654708 4.92247854449335 2.3168999497074183
C 9.977628800668843 18.237926498751932 16.302415299845514
C 8.977584162737715 2.067930624756631 0.5992432510305554
C 8.164301815962984 2.852692100269603 7.817970167366912
C 10.57256235035694 10.21979586324886 10.677133340133572
C 17.31922322990938 10.693626360516962 7.821956450237627
C 16.06156681357715 5.365426229969176 12.220539369220194
C 13.560374885758367 14.379311162904633 10.916133752308275
C 2.776228056074588 5.643677412431605 3.740186746630455
C 17.970749530632485 -0.3352595820520679 7.7579167215874305
C 3.806066985864715 16.063928298355798 8.578315083731104
C 13.309955194687744 7.56397802913697 10.870348863247742
C 2.8040128102144224 16.770360328700534 4.8210354436071565
C 0.40846361860644254 2.7591511601474683 13.776669443609935
C 11.887057854504828 15.507040096048991 7.877089435353677
C 8.206831173538065 18.421989859695717 12.957980528238089
C 4.212686614571847 10.747556036989558 18.33301274434704
C 7.0066998621394285 10.990364012269636 5.758923855453963
C 15.607248790658344 4.567836478204592 15.907778042648571
C 1.1486365901326399 8.764770342386823 2.0829049128721815
C 11.636591037572272 2.505194818845234 3.5245966729629186
C 9.485804867019798 6.918486665059072 12.340217430147518
C 8.828650301294719 14.149953477015051 4.513819355621271
C 8.366163295765293 8.130799725018072 3.977218457978016
C 12.098282926151015 3.7634118633275664 17.25897617742423
C 2.648095994891375 11.796752996424498 4.023198350622271
C 10.544356947248172 9.377684731731998 1.0130403162242565
C 0.296502844305622 17.47364678647047 7.749222005674095
C 17.099275719760424 2.1869031004455675 10.35368601256578
C 1.770870639901468 5.242586986623446 7.305689222792224
C 1.4810301278729012 4.953844955883833 10.934901443908835
C 14.828347046993066 11.469929755451624 13.245743111631585
C 6.292077422278879 15.198318326242886 11.428532800265813
C 1.4463106307323947 8.572706517912513 5.717330060154756
C 16.619246733189303 16.549179415234747 11.166062763229782
C 9.287599628932279 11.656183929330487 16.429005515971618
C 12.535553300488163 14.932835418440115 4.3564460628907815
C 12.598686191179624 5.406390055767667 13.842963829423137
C 10.555399033383821 16.940630401678483 1.9753673629592337
C 16.241300829204874 2.9483958827041374 6.920376981460815
C 5.864427675950509 18.24385465604611 6.306325288942952
C 15.277155919391475 8.071410931693164 14.57966155404502
C 4.50501960556645 1.9311842249511704 2.974944519517329
C 15.617687781167358 14.674071451624958 7.87181825152419
C 11.769196919938272 2.2935114075242566 7.308705122684293
C 0.8095365757613341 6.554025641079801 14.378824354133439
C 9.872563127235008 5.557551518401375 19.67850674708439
C 11.228896370598294 2.620457099778989 11.651380079926899
C 2.994041722558549 1.9971521074434744 8.589522478949675
C 13.849463546492304 10.65146448835357 2.4706667792769808
C 12.155520808394817 7.600164841475212 3.7449167793582276
C 13.964382468506127 4.008222063744547 9.681711679562431
C 11.013422448510523 13.043070909822838 1.5623471957704789
C 7.994556155420424 11.674433610359186 12.905721221018283
C 8.006528402366094 2.4463627129803895 4.133579577791453
C 11.813455217724783 9.200556059029376 14.056957936198996
C 7.758602056522203 3.7616925475433254 11.345282182472424
C 3.678276856856717 11.112826857479092 7.543794737437299
