108
System of Argon Gas
C 11.725576966194394 5.371826096680108 3.687370237180176
C 2.953615720222924 12.743960409406276 8.266398806023185
C 13.477447320135033 10.811784024004849 11.777710845711402
C 16.05586328063811 9.091659926356705 9.673501061409612
C 11.081999415733053 10.995468179749086 18.16841266236782
C 2.221520866107448 5.239153093185026 10.172508997751054
C 15.420478333508427 12.597205365160338 4.739183868360467
C 6.298810049825986 4.278761830445274 9.067392815866457
C 12.042613426352455 5.036058372998082 12.417801471977455
C 6.744293807068991 1.4469128104210622 11.49790279736047
C 5.431593196598979 2.2541617876309994 15.621953923180778
C 6.359283976093769 2.3093696369406493 1.423187653338595
C 8.702270249279177 3.6496178023960013 16.939870304899628
C 5.030775416449884 7.274403492375829 1.6555960059188009
C 13.865180196148108 5.543500911720854 15.752415715842085
C 8.341733045860918 5.642393134875814 2.1138589076171637
C 11.875470505005032 11.561936696830907 5.409092050536925
C 10.96182965579743 10.219528160929224 8.901411298293619
C 14.169509976714716 12.224793439907005 8.350719393894277
C 12.789382313196633 15.184692401929667 5.752811367722413
C 6.219322309424668 11.1043487505815 14.051226728426258
C 6.020204159673205 16.722844131621184 9.036151224318592
C 10.335756646238583 6.558399014072522 15.380647308685486
C 9.71268127983592 2.277719098452729 3.0454326756352375
C 4.6087430258807975 13.815785172460116 15.757519308092379
C 1.8575080773476556 7.748897943719442 17.348552616570604
C 14.665389181799966 11.798192260671636 17.47936972999166
C 6.7664345636576835 7.726400397201693 4.9081025993857255
C 5.170658579238789 12.559803418730638 5.096647712189594
C 10.12144567909904 12.567679935521273 11.822067279225784
C 18.24578005990682 11.62221536717064 11.153250557922158
C 5.440802397094318 -1.2494075673659046 13.666482398729592
C 3.891288329187184 10.87690140168574 11.34110882818176
C 11.580772811515626 16.57943224197612 14.111169905011325
C 5.105093396297918 7.520612610631712 10.578490506612544
C 4.833569474884353 9.977881001287685 17.126234933470915
C 6.591021020133978 10.445040353695795 2.4880455828974855
C 11.031351020528254 7.643168794219612 6.341095667610572
C 15.747765457700128 8.207068470843122 17.62411497587331
C 7.0506302068139295 16.226399836150843 17.41980538826964
C 17.686065022873464 7.268820552749572 6.630246386375416
C 3.24597789321711 4.283082937260127 0.537851627191818
C -0.5886140507086177 9.621394112312792 3.7410519892927803
C 6.812248421355389 19.205237512349584 5.140202727182403
C 10.707348039654255 13.786615521196971 8.410601760285852
C 10.493504145028203 -1.4181697006850487 3.1221738166162405
C 8.655768408207598 1.404683589680782 8.349666630087627
C 16.341088189468486 10.40922499772816 14.283321735456372
C 7.420493381134752 7.65132562946031 13.457784511509539
C 11.649451845669562 2.4839459003154456 14.956746826007661
C 13.715351259345628 9.91055719348031 2.6353587266282292
C 14.841398429283142 7.365897770921679 12.681488960750732
C 16.468998063592004 5.459696037616976 9.762632428382782
C 7.606357052787213 10.30366103172542 10.745492738099406
C 1.446113581153698 12.911101502203033 4.398101674454923
C 9.237443901554457 12.929296035506438 3.024829459734967
C 13.477322756977667 3.1152184860969707 9.55833762204442
C 7.664814281930355 12.34867158010361 -0.49934301445314955
C 9.966085676655982 9.00299719761731 3.11038191537536
C 1.8735924706213218 6.62785983750966 3.5295784903312915
C 8.071642719170589 7.553934044499104 8.402495385303903
C 2.0627485299344595 11.160466575777143 14.671754553544716
C 11.579910689080661 2.5601997011049957 6.346267654331491
C 12.036105311345263 7.377072882582497 0.5235640427640221
C 12.382780770605063 12.926679153600274 14.734372151533073
C 1.8699527445868946 8.840969597399255 9.13026355252624
C 14.269261120678575 5.317980704772247 6.536610424146096
C 10.565598802258922 14.665402813657858 17.526215961503897
C 12.9791074745377 7.1096171942892585 9.449898611928688
C 6.295117981300628 13.792405882827516 11.60574253745629
C 8.57768228638005 4.119031038326178 13.228211302913925
C 2.0322461673103844 4.918032719868819 14.897594015527357
C 9.132349076841663 16.183543148088148 11.097971004078873
C 8.232973308634543 8.510427458888191 17.71488063017697
C 5.047043150719602 4.480539577785629 4.179591047972685
C 7.089661843360248 13.290258491081257 8.169555150766158
C 15.276569307016434 6.600247870895663 3.159700370513962
C 10.30402943660266 0.37987162587834683 17.79066143796525
C 4.602646377730094 13.391063828510616 1.4437690259584892
C 11.819429431748508 17.42992106557653 8.668339004826603
C 8.510845360231897 4.61962277246541 5.878382171769341
C 6.803342295612703 15.778777091256336 3.305361990557708
C 14.984965395220916 2.037534111132183 16.48272957844293
C 14.487774546896755 9.083380090656744 6.254341171856249
C 15.37733938959596 3.560761498180396 12.917917733204435
C 2.6658736577264928 9.613268241332415 5.606143559119922
C 2.7250048086538516 14.226173754956662 12.440270719240171
C 10.647421017654313 19.548661302481847 11.527906574619585
C 17.69418642706934 11.169332210640135 7.229532606565225
C 10.087748061673553 4.676902741277793 9.335877165456587
C 8.85251191173192 -1.782482049469973 6.444696250481688
C 2.7253547970208003 10.218714933400992 2.0650756966627632
C 12.952365778904994 9.197277376492975 15.28746813444943
C 9.600889856562778 10.480922308511857 14.854449132488272
C 1.5530862891372357 4.049087520954805 6.456462052695365
C 5.827922222732642 5.932151633618532 16.316320045294663
C 12.810707227895199 13.580089553374897 2.298065496145961
C 18.527626293353823 7.8946462428323585 12.435338140317155
C 13.056361071066327 14.680992727271695 11.170896029287343
C 5.004380695050097 4.607720969008731 12.736163070361783
C 8.468517682556575 10.695852637366356 6.070363167819667
C 4.0959604945941654 6.582814647577446 7.126740098657661
C 12.099014748263201 3.662950061689513 0.46077804486334656
C 8.526532495976113 0.48910198544035544 14.569515645024802
C 3.846967497090944 8.063402473405871 14.016352502202214
C 10.692273036000081 8.397076676937957 12.052936150300933
C 5.371013958809134 10.003594588030044 7.894519847148033
C 8.445836891411831 14.42005703803027 14.496044464308609
