108
System of Argon Gas
C -188.80684328940453 9.132139696073736 66.58416971146028
C -492.4596403199088 223.15505365750207 -250.7849778096031
C -191.5373398046633 356.8477293660328 -231.59014316555488
C -521.9104720765821 -6.890824421700387 -305.072728944464
C 161.48220418265387 139.1655527672457 189.93857664493763
C 149.86136563754434 185.74634783921687 -313.8549640925775
C -435.36285803327496 177.93041591569775 13.492715481941218
C -434.664045438883 -58.66227372311199 -546.0980337197302
C -87.77387580438591 52.76523189271786 -138.56339223440972
C -80.53166897281345 -94.68161081367043 -242.32186293693985
C -301.8680926586884 -40.65027938380205 -117.1762796298134
C -82.20060125525448 35.291223074791795 -36.39516449421813
C 152.22787235604082 411.02703603321527 -170.68744071419462
C 98.66883922958581 -84.28253678554275 278.53310594605534
C 213.3264440074973 533.9954993456895 418.987763041571
C -422.987220063331 -13.67689342353834 74.51232618060197
C -155.1702321060425 54.178202203214745 29.163995321694472
C -29.29620854842584 -69.38042033787845 -155.81805356355565
C 162.13543644589438 -243.1385065476432 -73.06269579585833
C 22.519274328111987 796.7572730319301 26.349826553854133
C -169.21777840852238 -310.7449603154709 -93.83476516510135
C 79.21797399547026 481.1082882086644 135.34537476400226
C -102.11994540722134 -282.8860381486762 -63.77788632568368
C 127.01248435126399 -246.79729396332766 382.15521077233427
C -20.70449482718996 -52.63818389674778 152.75507595600916
C 204.4410079825525 58.2059224226985 394.55250888379004
C -64.67971996112215 358.2068716409397 302.56321215158
C -341.7347240017557 -111.98607532967071 47.22706241227205
C -225.9688299490125 -94.21622683340577 286.4129402309293
C -450.8604389598145 -199.92494342752943 -113.9892178640759
C -205.23209720995726 -64.52820070134595 354.51149783335
C -96.69882047322463 -68.91488260443874 297.0506105593225
C 142.99865626368182 118.15939760058173 -32.97056485318608
C 136.29063033069258 63.38780809974393 -260.8847000733631
C -105.6899009625202 53.551160959620375 122.62299751232786
C -52.63753617494337 -262.8828784543968 -240.25841549545999
C 297.5087491588245 -109.2561805883583 565.3019244017571
C -92.99244500723692 -587.0453449907216 533.1778473877526
C -122.00923641374396 163.1915723631054 60.09635928727894
C -139.74261237244664 205.88497686852696 -25.826679072186018
C 76.27216216519281 149.11696288490475 17.155196173185974
C 57.222243438300026 116.49103660290879 -55.83258575704461
C -295.65550004040654 121.08343021064962 70.76356000092105
C -510.792327372521 -27.168719781466358 -69.12766037544941
C 36.57385716003857 19.06986267313794 -12.721897467311031
C 173.23424784659468 -4.1321094987732545 111.71493142962902
C 118.10041864355166 -149.4538575375683 87.06130735904536
C -149.51253599684117 -453.61072083898887 -147.34288036434492
C 15.16513257908973 286.26772199454507 -106.0722804848444
C 449.0835478096651 183.31089102492587 209.86776852553
C 50.470239156149994 -164.2676394529715 -272.5522374362423
C -229.62500777131123 380.4700104597404 146.23284363041904
C 338.7112942623431 339.6886041723057 -430.761535486042
C -45.30763210726844 151.55558351077707 -209.4816340147652
C -485.5857973233213 -66.05826286042819 30.14497179967679
C 587.3620489939843 -147.82759679375656 -5.862713586501445
C 97.30221720657235 278.22788102553153 -233.76115048560385
C -102.49465085035429 -114.25594802937827 -65.26758524593541
C 160.77816817591616 194.2533191720785 323.86124769701166
C -185.41948051933218 -100.86381581969256 335.65856254382004
C 183.36263466939556 193.4874513248196 208.4010526833833
C 192.86062668665224 60.34773601247575 289.31113384630584
C -590.353472976986 -179.25328863011651 -108.77852394160152
C 65.96095205909118 -128.3614397332012 156.3039434132231
C 402.75432032714 59.879594376478146 -346.9001090234989
C 43.89389041176497 226.00552867581058 86.20660133169912
C -448.62236845339606 -221.91071275741217 -22.893046010014718
C -81.22277790119655 129.9164462856396 -79.45445231346186
C -203.5258954918954 126.88359056712744 -10.149435142563485
C 129.76431314845456 73.51163547159031 332.1967440454042
C -169.01540374149832 97.86783636117521 -156.60889133079195
C -135.55987127265726 49.04049618124214 -100.15292190150673
C -191.98790031135798 -108.9106692976953 -128.30443163957855
C 18.28106466547976 185.9335251491184 257.10020533659554
C 212.75098529523115 -64.93418619886252 347.3085374469086
C -331.9433750784282 -74.9702755637114 -112.809739946645
C -245.62246619528915 514.5254595478688 40.498350630195645
C 352.24774173463527 163.954049987379 -334.17601669825115
C -224.35791361685423 280.0431881193665 396.99615571344293
C -215.79027442911377 76.20040682979388 269.0815888853213
C 470.11094585421216 -323.62726517539954 121.09025751256898
C -14.694894816181316 11.474061505650344 -101.85054611406446
C 60.93446612293337 245.81738734216057 5.067693700524686
C -164.80977341407782 72.10562808624378 186.67468848341971
C 332.42299531738166 -285.13253108350216 -184.25091101498748
C -50.90250841022376 -326.3530012358607 -115.26989980434199
C -87.71435509543677 165.70700454171038 -126.72815770152202
C -769.1797263767282 434.9707973716148 220.69578886598228
C 27.027170534941 -68.6334061973089 389.5490516357014
C 231.37809604438542 -244.47465707834857 -48.54109891193661
C -41.0554250760586 165.01426537619432 -198.14399634883068
C 153.00862137609383 372.83894811981884 -72.73890637193054
C 147.1846914754768 336.29673373444683 137.290834498141
C -6.243410515289188 -378.65664678678047 -42.12219167500675
C 525.2165848484799 268.3199463675417 -254.13982039432065
C 63.20077783237535 5.3728478681181855 -170.29205186709504
C 721.5703885688515 316.74592999060485 257.8413537190726
C -336.5131835735563 19.2000161638559 -278.5579244404965
C -266.51142511528093 -364.4524290177793 -35.65758772840738
C -296.62551789659216 -206.42778835338007 369.4764569279746
C 427.67347849485617 -97.66470363718648 -32.78677295233115
C -53.759391662114425 -167.18974670094434 65.07926441818464
C 57.672569069624124 -355.19639510813994 278.988115981785
C -327.6650518129724 256.1450732962015 43.70181404460416
C -158.35296139330524 53.89512530290663 -201.12535604529052
C 115.30263523971216 61.56866100831213 -312.79522884776486
C 76.13857295904262 403.19136439096064 -136.85877649694618
C 48.15604881069325 -116.95152514791958 419.66811214957914
