108
System of Argon Gas
C 13.829566370549472 15.744033844621939 3.7944760000572213
C 3.788473500456494 7.61411543776983 5.775920347004952
C 2.2123998863968306 13.925212982009425 8.4544103520013
C 8.37001821512995 15.182348507155556 6.063895223671407
C 11.437327541366876 3.5994364154351643 14.314452566822816
C 6.0528120028806764 2.338584231694024 13.314109856798515
C 17.492209877971124 3.8047766053390832 14.024957881972393
C 0.6577060090586588 10.239632485560222 3.1547036924187966
C 15.14495115980651 12.496408130350837 9.986569584436747
C 4.197063478686594 8.108886571212343 0.8697627093028446
C 12.158419884083994 3.0363803105490286 3.323362170964118
C 9.982382941497452 16.063609824537853 17.183298134470316
C 3.506851357821594 1.5308507360767185 6.421914584983092
C 8.644451486809297 13.412865817875792 9.631210660906584
C 7.873361386342494 3.7939009672102744 10.261793125430867
C 11.43252422823194 14.454995274349782 11.851725014689922
C 14.131274364465963 1.0358428754867681 7.662273916188137
C 7.147314102611833 0.9364826918638818 7.340740506563968
C 6.517622059189204 2.9281530356574277 2.819404832878277
C 3.1764309740628165 1.0113647099707563 15.467981036548318
C 17.772014588120136 11.190055894069435 17.40951474359236
C 8.680784616734707 5.127977923046544 17.39091414802884
C 7.2312103759758335 13.347712801893952 15.280374115901658
C 2.5124843387696743 5.558866564631888 17.12301904870912
C 12.614948279398158 8.184312672573945 3.378565594658528
C 14.806773780972524 5.781522201540252 17.186554594629538
C 0.9017383351265411 8.434265731595774 14.120850277559576
C 11.103316393389195 16.555968832401057 7.851560780548162
C 5.929951069200388 9.989543317305616 15.5360370505185
C 0.6203848703649428 8.01690515196536 7.690235569524129
C 8.624408982455902 6.323249067333187 12.727253162346877
C 10.869342890944168 10.008341452809493 5.806734420950609
C 10.18307951876402 12.310534486873708 16.73864531909664
C 2.281606553762236 12.150216951463523 12.984197876438891
C 14.119527542725994 12.515387214381514 14.180835919955799
C 0.08330934215300534 0.49392135187316377 16.877388050431797
C 10.32374505448306 1.427846891850222 10.22279342988875
C 1.7961200277948826 1.1626707304628432 11.61260658893212
C 6.183193034595105 2.3061564882309167 16.834698828663235
C 0.13210387314345806 4.207411514843978 1.2555177415484
C 6.412932219521716 11.738984845172181 5.840515823333576
C 9.27858689271417 7.109539271891378 2.788611849636735
C 14.83681892196918 11.756006453332722 6.1361975254265175
C 10.819587456596071 9.367460194459674 13.804152751120727
C 14.48013601817401 16.869028653411387 13.101484319967387
C 15.484682753749892 6.5001108081623125 4.862982937493203
C 0.009511579123332448 1.3523446187752188 5.3806752584385285
C 3.2335196348144324 16.143003256897003 0.5108364898591913
C 5.464797839401835 13.574921012312636 12.196246476799066
C 4.751970635238062 7.028210105212547 11.623814615945578
C 13.791739948531811 6.681654444535622 12.061863112690409
C 8.791291866964256 5.187190397729781 7.258273053032319
C 4.169170609680265 12.866884665548488 1.74862921980782
C 16.151653500945784 17.941885947969887 0.7064443520144905
C 14.017041679978016 7.061759797498277 8.615918363286564
C 1.4789349176028894 14.939019331860957 15.69499271841534
C 17.498823124192548 16.570216665070124 7.476193327165013
C 9.417453541673886 1.575439321297599 0.2836348958641617
C 4.551089119736995 10.29437126839271 10.540693083784705
C 13.646196473112182 13.777953407231983 17.781373741382332
C 12.154398883261356 11.15291926240664 1.4211455681525986
C 10.58359056001556 7.460520649528577 9.852750377037127
C 9.643941989567793 13.21243708171058 3.4753620626518753
C 5.777577164955163 16.994388221381527 14.141870335801936
C 4.396487679155427 4.732612969118746 8.202216126028029
C 13.692317744425491 1.3551109391874505 15.547843953857573
C 2.877311217730745 12.36857763136546 5.334659531832104
C 1.1708574986750555 5.3555909699074515 10.188481554744524
C 11.992749390952765 12.442028839742532 8.163319188367286
C 14.711132171112077 2.756077523009016 11.833360650591432
C 15.168242230428671 9.096572166488237 15.812147876875724
C 0.6677486081190416 5.1676358179497415 4.785934294081763
C 7.234921068055422 15.724870622668988 2.063561195951362
C 5.092496130209561 15.833332011661163 5.241501067315795
C 2.5394061836610247 17.941875343114237 3.462042943346443
C 7.8954456873824626 9.48774219414633 0.5766917544261854
C 16.54854918117214 8.977989767464578 10.413604881114072
C 17.535730631775913 15.01253490510181 2.690290885656405
C 5.300429562841547 16.86671485394227 9.952470562412522
C 11.848592081185254 7.824706663095624 16.796134079743208
C 6.737341298436711 8.36102496512076 8.700253938285368
C 11.137405303747181 17.399128031779096 13.672677224992233
C 10.238369401277062 0.26575610501779967 4.38443313930294
C 12.029588000789948 17.560274728604767 1.511550134330701
C 17.600263331641532 14.610904118155274 12.86011039525318
C 17.785496475391746 7.693999943765948 17.716182847590755
C 16.36191321599102 4.282451288326142 7.483282913757103
C 12.47008546539233 4.943182753048962 6.4385419316160135
C 13.038921417480411 9.762116000273757 10.676110289604054
C 17.174678443507304 17.978178069579883 4.335207367379033
C 5.50103803167256 6.103800970158455 15.01950938052148
C 15.353521865456866 9.76308603329031 1.763166727630241
C 7.949873708469027 9.659211105888982 11.851774722172445
C 16.235729768068822 0.061642323143857425 10.33342703488483
C 0.3279485602034622 12.424532145016885 0.5350750070155523
C 17.50461321142571 17.923290932700386 14.414246921052891
C 2.9074345784616162 4.317215492278172 12.936954653748264
C 3.2985419647170255 2.8279306453866253 1.4484908905486318
C 0.007494722518863073 7.830721504698445 0.18160133990685212
C 15.60845324362004 3.2815593987517744 3.6132461439597767
C 3.435030749180987 12.226725531183597 16.332672210953945
C 3.9747048838134997 4.376241915736416 4.578918282008436
C 14.360376119357479 15.242139325281164 7.466949575164509
C 12.088033218046817 3.701781175577466 17.975273267257883
C 8.497183539203931 16.49194766943059 11.48558198519033
C 6.419617302879317 8.982368482875936 3.6599118246716897
C 2.8092486295862384 15.68510208443685 12.461181329519796
C 0.06162900914643088 11.467322817105664 7.32352412441936
