108
System of Argon Gas
C 5.315789558313455 13.735825773737725 4.8435737293917756
C 10.904513238329104 17.897649820153802 12.224595634869683
C 5.5875567036363645 5.448624663680957 12.599320029995686
C 11.923528016708982 3.310120354754934 6.2106174200525945
C 7.4467755804077 8.541420562081381 13.519622139117653
C 11.682184567100437 2.9720405283151345 9.79371334143943
C 6.610064223956071 11.419855079299332 7.696567793475499
C 2.7028553910516417 7.884110223691669 9.06425942536636
C 3.5207520251373503 8.464484056283098 12.626812013028655
C 8.538705102537692 9.171328786002519 17.222527652515375
C 5.129400030441211 3.8687062950585336 1.2675474388077315
C 21.20396545001527 10.771480850270137 6.6802325241938165
C 17.753079474404533 5.254451888755495 8.444228385912227
C 7.371550764927763 17.57076311516817 13.27106146981639
C 14.370041314973216 1.152603137124271 0.6795469975286875
C 7.706639571124113 1.8883792451690573 7.140706637135668
C 10.992037656461509 9.575858427513932 14.254586234173281
C 6.472295165370186 0.4881575173127724 16.834974223555186
C 10.107155738442872 9.209731823905699 10.621024252485498
C 3.829157436943614 11.387542050526674 10.34421567818996
C 6.354766701393833 6.112711989926137 16.31956432275849
C 10.22611779376347 12.304534558845416 8.601866743435465
C 7.6920378271136185 12.526686076482147 1.362842490264669
C 2.5920564689398082 16.897515140423707 10.564685184591388
C 5.960288502725355 4.688928404530518 9.013147620730553
C 9.194989609299041 8.977831866239166 6.859138938094048
C 11.341502664832861 13.778756053092172 2.5098178307707757
C 10.157691124630942 9.847613351055529 2.5265435497711133
C 9.17909957800837 15.76904854866443 0.0907278755800904
C 1.305276311722513 13.55182162488007 5.200967393580068
C 15.830907465466286 13.576485417495407 11.019779957430629
C 11.294846397236684 3.365242133187597 13.338287861629947
C 11.097254579070384 12.587316858684353 12.215162722993083
C 2.8904400789199096 4.945378429039363 6.6871856126261315
C 3.930265286554667 1.7326978852470722 8.160313448321348
C 16.920739345777 16.840223377565678 8.901239685329115
C 2.7888413162211974 16.265483448028025 3.2795203405256963
C 4.7974468970646 1.8350838163501637 11.851280944626753
C 8.318611523627915 15.586673773436482 3.679679105243824
C 17.234874314279168 16.7170597833619 12.629946588744085
C 14.80891504767726 3.9938130622735812 11.850906065887939
C 6.415172644720937 14.900541807831981 15.613521823436027
C 6.32248078755333 -0.6400699084871405 9.557057322355037
C 8.864268263866471 15.088967624356252 10.911206833757424
C 8.286354289212847 2.200919900662038 10.781458546859456
C 15.136805326746837 7.324623777257578 9.774833548821581
C 7.793966446463915 7.060025879459796 3.5639634553139494
C 11.815692215647422 6.511222689094919 8.548900809353338
C 12.437100793881442 9.019049286919275 -0.4322248964712501
C 7.440217340638641 11.695985792978068 11.233617601041034
C 10.188950019997149 -0.29807190002230605 8.648696041181534
C 7.015295134796439 0.9426116592976226 2.69910540316695
C 9.032605788285066 5.7289765763505605 11.197252964321413
C 12.532537516579339 15.112217217861836 9.79217169563823
C 13.607576800387113 17.69519078465444 7.183038469620033
C 13.718999137088458 12.09570342162582 14.866735183177285
C 11.463970573474258 14.885020155849451 6.134756690447764
C 5.600328535812917 7.605587850404246 6.5468574723716895
C 10.349521112648139 6.339481673599555 1.007281312242081
C 16.77694125098657 16.641878230932196 5.133597785699482
C 12.8366934458019 4.003723171781628 2.619788095604552
C 15.166854601058605 2.0216225653329154 4.674508148167289
C 3.7109788737037954 17.19520779265207 14.245242675649239
C 9.31786990023217 3.67785130787181 3.598256510673726
C 4.46249200901109 14.413338049143409 8.329442787866805
C 3.2015436201113188 1.798277773415705 4.396822240847042
C 12.73517132088658 15.751325028721993 17.00195390775761
C 7.980631780175852 14.971030598888799 7.323616233363425
C 12.097326947199386 3.6314458825472897 16.952987034876834
C 2.8941627593490304 14.192306344962102 16.39755900059284
C 14.725708110909073 5.773005440955793 6.092575112154548
C 10.137465852156152 0.6253275576101516 15.804690490458091
C 1.7190219074296524 13.747097597041062 12.561185908952327
C 9.004757342314065 12.255393513732642 5.022667014675799
C 8.503975791843583 3.40971085515354 17.89489985056365
C 0.9191198562613443 13.648394741133641 8.89209963154498
C 8.816469634292236 5.3502731939083015 6.944070280009507
C 12.415318705942948 6.7800523809936735 12.322184685237485
C 3.7760762156727536 12.512780777757705 1.7622414951037104
C 2.651314966473853 4.452458373396566 10.525139809389305
C 13.814847679176728 10.302836366126522 11.468253956489002
C 2.0679715557201583 16.81845405399444 6.877010746690496
C 5.583047381717125 -0.7196855878239443 5.7484742047592805
C 5.633490015478147 15.708009994644225 1.1332609621625203
C 15.10207457424561 14.030778183016556 7.2716037093241646
C 10.813087372723258 12.37491204185763 17.17851170387622
C 15.023009693198842 2.856558703776545 8.320293177090127
C 17.819494362807482 2.0390027838877116 10.680651723209794
C 0.12908422146667886 6.755486528220923 11.91547133329822
C 9.988402366358127 15.147177928808098 14.534570286641062
C 0.17636887572259008 10.390116211981548 10.734677725436974
C 9.878316698552482 6.1783257539233825 15.219929589421174
C 5.947592009761952 4.136820013652249 4.930420216453151
C 4.651216009966733 11.704917315977728 14.05809279596398
C 5.322266113043181 14.673240727917017 11.96449057879517
C 13.302649945003687 16.867851494006036 3.4764126507487454
C 4.221894683872413 3.0907068283183716 15.35488289491863
C 6.075334508245532 10.26945877259615 3.9865698486959964
C 8.234018102604105 11.928423791948342 14.735930141347717
C 11.375040917231303 6.810886313566039 4.660219499655386
C 13.756401987726266 0.9173019737984394 14.696131284931894
C 18.331743349524125 1.8308423016874886 6.906628813122338
C 10.723018379880655 0.9093727000400053 1.4885443876257827
C 10.256855766815761 0.29320595502941516 5.0556795226357
C 6.41202527063322 8.323109973197719 10.006143734593369
C 13.540794581779599 15.461358490717902 13.311253869979994
C 14.247554671853308 18.34638957994519 10.917898036029033
C 7.7815126151884595 3.122412599769134 14.305619059353374
