108
System of Argon Gas
C 13.364285762070798 13.559597044781535 5.094070459332596
C 3.2495194138886725 9.498953846517855 7.542487635201003
C 3.592753972631291 14.42336603865928 8.833271011155496
C 7.750721370873955 14.84449234287476 8.425269396357834
C 11.450763804957207 4.237273440141049 13.855141211065975
C 5.223642249786289 3.31267275427139 10.791402295281552
C 17.346370266568165 3.6993888789704137 11.865084682394647
C 0.528138167697163 10.018156792167419 4.941884699897351
C 15.141924269559997 10.535941819243659 10.390050554337538
C 6.275831401199238 8.786525176221465 0.8982217523430034
C 10.513707663762862 2.9607455322519467 5.61192733965244
C 10.652511274391754 15.210629768652893 14.073921854590974
C 3.7304228263423695 1.2860906770363782 6.380883055196003
C 8.709068761217877 11.293203283669294 9.194831356450726
C 7.92559081601327 4.661132662124178 8.406449513392666
C 10.885956154835936 14.006925656103887 10.613342242829344
C 12.291497765427415 1.1021906846493539 8.37347775029393
C 8.504074454995042 0.7817876367998516 7.809827041030516
C 6.760678659742975 2.970317953025014 5.052222724684159
C 2.4334186780174027 2.0367161392466193 13.290101859716694
C 17.440521466318728 10.995027114555874 13.248563065236727
C 8.288523072401022 6.272050794968677 16.62791523172559
C 8.350484938412457 12.500817094113687 12.781987861783382
C 3.279792595059789 5.898408032008074 17.02161720892637
C 12.199179096391207 6.334492180061315 4.918509355995498
C 14.800183009067048 5.94003955160153 14.79326329954411
C 2.0191943398032723 9.244524416301562 11.15505564013264
C 11.429749424954899 15.628106776523707 7.47906355345171
C 7.946953943083631 9.897477731421667 15.638708104825662
C -0.45117379609507574 8.573902852610903 8.360898001141745
C 7.905650579584481 5.438893332376468 12.382332078851466
C 10.293442446375062 8.978650991289557 6.6869914728871604
C 11.173506564751559 11.639240876981537 14.989194713718007
C 2.4653152091354897 12.945184464511511 12.091543266912563
C 13.766685308090212 13.132029132259385 12.71522007979505
C 0.1337079530673677 4.1595833169157395 15.514566017716199
C 9.894719158255752 2.722973296962505 10.78554222976838
C 1.9744848854998385 1.9901106810191895 9.592787897486577
C 5.421409207072582 3.8838771958190246 14.634444752781201
C 3.2247179035890134 4.090831007705015 3.8795286234922286
C 6.025244952022052 11.98353363414672 6.662773646408282
C 9.887806645593928 7.548296170123458 1.9927084173265508
C 15.27807460601958 10.687356160907008 6.46622725579198
C 10.439230880197831 7.776404315855655 13.79124264467269
C 13.843229257997319 16.507747544107065 10.507937786237315
C 15.847471450544862 7.070035960228548 5.362282206388117
C 0.3420470585255173 3.3733877253195343 6.563510729755368
C 3.5079495060114922 14.374879754661935 2.597486418788211
C 5.804409680704243 14.857916026196401 11.69714972592671
C 4.8867617304872635 6.986399494680144 10.509912810073041
C 13.203655639611881 6.7549774930858835 11.523772336579059
C 8.502900743568311 6.179322860064023 5.109892737854645
C 4.315880525806579 10.691974421405323 3.520058477104235
C 15.571008039632018 11.177648566957586 2.87551017813001
C 13.482623076122744 8.093503184155146 8.168699091369653
C 0.879179165291549 15.415366574330884 14.569012654346123
C 18.056463031620012 16.02454251646699 8.545300548428012
C 9.495214480073507 3.889375648704766 2.1874992784503267
C 5.146626434628625 11.267691794757468 10.203382478610994
C 12.92627117986982 11.896756099774102 18.366502965566124
C 11.8201643322165 10.429943160843427 3.7191643784682
C 9.93062480105194 7.406712380891319 9.923808536893736
C 9.609335402002653 12.704145460908917 5.851670112810796
C 5.834030161632657 18.387686211888102 12.983746853919513
C 4.380139304016426 4.811153007548001 7.436346092426332
C 14.926321698264696 2.2486095130093355 14.509941766594803
C 2.5712742835473006 12.87875027313732 5.808104010763665
C 1.4789715246205968 5.706057522009014 9.491942844444985
C 12.220941993492861 11.663412227901631 8.143316902691744
C 13.753863291633634 3.11868020541833 11.12190880321624
C 14.085383923387136 9.471361990472156 13.985791910838067
C 1.5625972864212065 6.698742081492392 5.859254595279038
C 7.037936466931418 13.325976124351328 3.2574233548045126
C 5.242819690901972 15.706739835426633 5.793559368194795
C 1.6119717562078473 16.466993204242677 5.226555962431554
C 9.282947246955757 11.06369790350934 0.9106239955637486
C 16.8283088627585 7.409100056621906 11.843270715807945
C 17.07248440762976 13.731544998743445 5.4053866416328225
C 5.329367877796083 17.74050342220153 9.315672075138867
C 11.68390202296734 8.699170114278283 17.035966202195144
C 6.858815020169416 8.398234995545304 7.819067063680134
C 11.927166456331138 18.506939521693308 12.962302316485765
C 8.802530423760231 -1.6624460961255703 4.968506180826892
C 10.709744253987793 14.056552250455903 2.568650918712184
C 17.04247746165901 14.259392112997544 11.555958386926173
C 18.260132717535956 7.907236800045032 15.232194540785628
C 15.794200803872911 5.289819087252997 8.841808825672253
C 11.917643921182973 4.815225112257276 8.407594625076436
C 11.487356491571013 10.371466415221066 11.467352264751325
C 14.868012044062857 16.8665064844861 6.5391836562048375
C 5.298908159513803 7.6094172969306575 14.401352621684927
C 13.869897845816778 7.871147116396914 1.9426491672467225
C 7.523802148809512 9.109993877097125 11.943470395988468
C 16.16519462063655 1.4380313512040408 8.914284315648302
C 1.21356967942924 11.48751748521974 1.6371295110622772
C 16.8668583977844 17.91063044064054 12.222084560411838
C 2.4043738708160647 5.769434436014464 13.026123018343835
C 6.101171533738983 5.286945525875421 1.8281524627903483
C 2.4398561084710457 7.749462723336956 2.227071446807611
C 14.403863761867571 3.306371002229288 6.0378251831067375
C 3.2487908593908883 9.680477065157996 16.88592984115869
C 5.057794895871741 7.332018287521846 4.792370466008148
C 15.077888945030312 13.758536313376977 8.526577755839423
C 11.938784832652386 5.109386397560044 17.526211300549836
C 8.905404948330382 17.106829001866483 11.133478825626948
C 7.847413587734401 9.792941242504252 4.177896926982195
C 2.4310531188471733 16.732326981449475 11.459080954422085
C 0.49953778774368746 12.095789315790364 8.823811932123247
